Version 4
SHEET 1 880 680
WIRE 16 96 -16 96
WIRE 144 96 96 96
WIRE 256 96 224 96
WIRE 96 176 96 96
WIRE 160 176 96 176
WIRE 256 192 256 96
WIRE 256 192 224 192
WIRE -96 208 -96 96
WIRE 16 208 -16 208
WIRE 96 208 96 176
WIRE 160 208 144 208
WIRE 256 208 256 192
WIRE -96 288 -96 208
WIRE 144 288 144 208
WIRE 144 288 -96 288
WIRE 256 288 144 288
SYMBOL Opamps\\UniversalOpamp2 192 192 R0
SYMATTR InstName U1
SYMBOL voltage 0 96 R90
WINDOW 0 -32 56 VBottom 2
WINDOW 3 32 56 VTop 2
SYMATTR InstName V1
SYMBOL voltage 0 208 R90
WINDOW 0 -32 56 VBottom 2
WINDOW 3 32 56 VTop 2
SYMATTR InstName V2
SYMBOL res 0 112 R270
WINDOW 0 32 56 VTop 2
WINDOW 3 0 56 VBottom 2
SYMATTR InstName R1
SYMBOL res 0 224 R270
WINDOW 0 32 56 VTop 2
WINDOW 3 0 56 VBottom 2
SYMATTR InstName R2
SYMBOL res 240 192 R0
SYMATTR InstName R3
SYMBOL res 128 112 R270
WINDOW 0 32 56 VTop 2
WINDOW 3 0 56 VBottom 2
SYMATTR InstName R4
